# opt freq 6-311g(d,p) 5d m062x

Title Card Required

0 1
O 2.14618400 8.93969000 10.47680300
O 0.52582600 8.36323500 12.51074700
O 0.86531000 11.66220500 6.86227000
O -1.37074700 12.05408900 5.43785400
C 2.52365200 9.75710200 9.46673100
C 3.86983600 10.03986500 9.21317100
C 4.20767400 10.85825300 8.14072300
C 3.22156100 11.40356000 7.32092600
C 1.87590600 11.13161500 7.58669300
C 1.51230200 10.28994400 8.65312900
C 2.66912700 9.11774200 11.79352700
C 3.38967200 7.85003300 12.21049200
C 1.42953700 9.43057000 12.67332100
C 1.83591700 9.49164700 14.14040300
C 2.63750900 10.54118900 14.60327100
C 3.06133100 10.57531500 15.92932800
C 2.67964300 9.56443800 16.81220700
C 1.87234900 8.52368200 16.35825900
C 1.45344500 8.48344800 15.02768700
C 0.74815900 10.74064600 12.25038200
C 1.41091500 11.80017300 11.62363400
C 0.71625700 12.95103000 11.24640100
C -0.64687100 13.06370600 11.50220200
C -1.31291400 12.01982800 12.14495400
C -0.62138200 10.87025300 12.51304400
C 1.01138500 11.91879300 5.46845500
C 1.19250900 13.40552400 5.22336600
C -0.29464300 11.35573300 4.85483100
C -0.31948000 11.60917400 3.35332000
C -1.18645000 12.55712000 2.80585300
C -1.16823700 12.81433400 1.43435700
C -0.28309000 12.13375900 0.60128100
C 0.58284400 11.18394100 1.14452900
C 0.56091400 10.92019400 2.51169600
C -0.44256500 9.85715300 5.15794200
C 0.63609500 9.00603000 5.42361000
C 0.42156400 7.66304800 5.73691300
C -0.87214000 7.14916500 5.77990500
C -1.95271500 7.98643100 5.50149000
C -1.73865000 9.32824600 5.19520800
H 0.32794000 8.32162200 11.56171600
H -1.26712200 11.96153900 6.39692700
H 4.63915000 9.59783800 9.84717100
H 5.25665900 11.07623500 7.93649200
H 3.49221800 12.06080900 6.49484700
H 3.36643800 9.96927200 11.80714400
H 2.67233900 7.01975900 12.25257300
H 3.85203100 7.96963700 13.19873500
H 4.16968600 7.60790300 11.47604900
H 2.91968100 11.34947800 13.92452000
H 3.68518400 11.40000500 16.27753400
H 3.00672700 9.59291200 17.85266300
H 1.56435700 7.73305600 17.04459400
H 0.82526900 7.67184100 14.66269900
H 2.47594100 11.74112600 11.39387200
H 1.24895300 13.75730000 10.73977900
H -1.18997700 13.96053800 11.20060800
H -2.38099400 12.09881200 12.35398000
H -1.14002400 10.04338300 12.99930800
H 1.87544300 11.36195800 5.07462200
H 0.29207500 13.94364000 5.54688600
H 1.35876200 13.60454800 4.15652100
H 2.05203400 13.78068500 5.79481800
H -1.87289000 13.08676100 3.46523300
H -1.85239900 13.55412700 1.01547600
H -0.27022000 12.33743700 -0.47045000
H 1.27312800 10.63899100 0.49883700
H 1.22464600 10.15751300 2.92611700
H 1.66163100 9.37885800 5.42079100
H 1.27474200 7.02159700 5.96191100
H -1.03857100 6.10138600 6.03343900
H -2.97040300 7.59384500 5.52979900
H -2.58021600 9.99248900 4.99513200
S -0.18655800 9.96558100 9.04752900
H -0.56893000 9.72392600 7.77456400


