157
 energy: -324.992069724563 gnorm: 0.000339446787 xtb: 6.6.1 (8d0f1dd)
O           -0.11746849813660        9.00194927691068       11.32565992890682
O           -0.77416891109784       11.02784938007918       13.04501430710738
O            0.56933643670244       10.80684582230018        7.08068200169359
O           -0.40867116965872       12.75676613077438        5.49737513009020
C            0.69271760395714        9.03185497181799       10.23175084080803
C            1.82503819164137        8.25577562514179       10.08331378319236
C            2.56180095109106        8.28050675648596        8.89712217980671
C            2.17040463029407        9.14668874236852        7.86818056933268
C            1.04593618763208        9.93192686959974        7.99613327912234
C            0.26780424443139        9.87203677760533        9.17918829444646
C            0.46333500444911        9.01258149273351       12.62363982345985
C           -0.43188364489404        8.22830776229809       13.57150263178722
C            0.53437782789274       10.52424140115216       13.02841577229597
C            1.15075420822684       10.75392256701071       14.39460410676216
C            2.24007735261966       10.02627231462120       14.85529611780608
C            2.78627936313881       10.30846216298928       16.09977341544732
C            2.26305431168090       11.30483652013038       16.90946199783601
C            1.17063105139654       12.01967560264361       16.44317686646267
C            0.61903298830412       11.75469273826207       15.19868534549058
C            1.37353718914464       11.27632125331344       11.98744912256856
C            2.64275299573478       10.84864435686987       11.61784221345165
C            3.30906685332776       11.47678774034766       10.57656391842467
C            2.74573342783543       12.55470333395306        9.90888709546125
C            1.50147074944727       13.00591625133564       10.31814534448689
C            0.81401901974743       12.37350827161919       11.34241193172848
C            1.18954928949136       10.97124122829178        5.81586409401334
C            2.37713617089177       11.92505380249278        5.91288909803230
C            0.04648953330675       11.56078662409415        4.92920084390503
C            0.49894505170149       11.87956543178088        3.51503188390543
C           -0.11381620521517       12.94113159005091        2.85950559484921
C            0.24439146764191       13.26200072251728        1.55960679478956
C            1.22066813318590       12.54258678789214        0.88509815583439
C            1.82397309065929       11.48508461105980        1.54474589388748
C            1.47081780053743       11.14845626360855        2.84578625311625
C           -1.06999398164023       10.50898330981651        4.88881838888685
C           -1.05929806728084        9.47744044605313        3.95989356520076
C           -2.04310988033294        8.49826239031150        3.98964667823262
C           -3.05640723657289        8.53210309389373        4.93377042203377
C           -3.06317478244518        9.57090256933128        5.85399602329777
C           -2.08385275338264       10.55227808419432        5.83929116669294
H           -1.22629606337116       10.68609220588386       12.25721503566276
H           -0.39359683077594       12.67288385417940        6.46039454811169
H            2.12255333738141        7.59616457553887       10.88225018592498
H            2.74445626976107        9.16521546446656        6.95783656030286
H            1.45712671278944        8.56370789892275       12.60033572358596
H           -1.44991956769628        8.60478415626792       13.52407261514834
H           -0.06564832572245        8.32857011994931       14.58924312048721
H           -0.42498795753882        7.17598568457141       13.29875183054889
H            2.67216227963815        9.22889696104199       14.27252998408366
H            2.69392943026374       11.51525903637816       17.87607783625587
H           -0.23788000064536       12.30950889672202       14.85050135938972
H            3.12108975888712       10.02065215577318       12.11541785890704
H            3.26843046597163       13.03550131699794        9.09608351300015
H           -0.16223052851750       12.72700095218512       11.63866155218697
H            1.49095898938486        9.99227035029955        5.42629040256041
H            2.02356202286395       12.91596747103618        6.18748201400122
H            2.89594739774550       11.98957010918502        4.96141962384958
H            3.07243000117038       11.57455401446938        6.67195359528632
H           -0.86339133146057       13.51512330079605        3.38089392146242
H            1.49907767739963       12.79643520530834       -0.12601484643456
H            1.97509168313065       10.31745595677587        3.31459970636668
H           -0.29234136209881        9.42265017648831        3.20233377653547
H           -3.81972790874265        7.76921110738233        4.95307305930200
H           -2.11618388058950       11.34352197814643        6.57215682620421
S           -1.13664367010460       10.82032822773707        9.34192897905510
H           -1.91914121001767        6.94057987043243        8.64365801468602
C           -1.36918137642547        5.99822522236969        8.74114769552305
C           -2.37980910531626        4.85038149966847        8.46806767463374
C           -1.82496913004304        3.51560381894715        8.99058820869604
C           -1.32267544508227        3.59944356556201       10.43088732766840
C           -0.86083122340299        5.93922945276514       10.18417994603201
H           -2.60300944792239        2.75260899964237        8.93254611006918
H           -2.14813285378170        3.79889602321590       11.12834516984791
H           -0.85364397944356        2.65592382709694       10.72310962550614
H           -1.67057136210260        6.20401626263388       10.87804559710854
H           -0.05110498904407        6.65228918629297       10.31669989346358
H           -0.99776381067273        3.20200736331307        8.35244284714895
C           -3.71258150736670        5.17581526762233        9.15104091433886
H           -4.11373074247952        6.11027022721618        8.76666540707069
H           -4.43481559790014        4.38649608185076        8.95384353093709
H           -3.60406295198308        5.27416358681083       10.22675318595611
C           -2.64100197008922        4.72523755633314        6.96392094392450
H           -3.38795282508887        3.95749397081013        6.77668783262765
H           -3.01168359742510        5.66627358519680        6.56605670034779
H           -1.73549372185815        4.46156957604548        6.42370627856851
C           -0.22413556245250        6.04925952745302        7.75918630086381
C            0.86802877983381        5.19245139691670        7.83759990864848
C           -0.24635071263088        6.99041617138650        6.73601675341684
C            1.89522113277319        5.26303467126567        6.91362832856343
H            0.91543071971546        4.47358206524034        8.63856322132610
C            0.77264802658581        7.05304543032690        5.80298626421793
H           -1.07389011659832        7.68255731407308        6.66888355950754
C            1.84876541452474        6.18800040251977        5.88591581471900
H            2.73649736882706        4.58995306668390        6.99201187430277
H            0.72032211816224        7.77430739967758        4.99967239508161
H            2.64367857749531        6.23400679591231        5.15684321810840
S            0.48425298984931        4.67723341410428       11.99287659019097
O           -0.43963200985654        4.78562368243903       13.08973716705326
O            1.48349736367527        5.70958103180738       11.89091949489997
C            1.28963540470832        3.08761067015301       12.01974006739961
C            2.21196798256836        2.79422967228168       11.03328543767247
C            0.98811134307933        2.17407964591803       13.01084904499587
C            2.83766287266607        1.56095851757026       11.03867682400414
H            2.42810312517763        3.53208003012864       10.27746892279644
C            1.62018936344572        0.94308584619469       13.01069730221604
H            0.26439377955931        2.44424254348083       13.76360675004230
C            2.54931005091339        0.62171034875153       12.02542647028728
H            3.55728961860534        1.32044599568635       10.26996075089066
H            1.39093501301798        0.22282079455762       13.78175453217705
C            3.24573612806855       -0.70229552855287       12.04144506460677
H            4.14660439118835       -0.63599924423233       12.65181515540898
H            2.60840087880477       -1.47198177859759       12.46915464730872
H            3.54061472334696       -1.00032479184613       11.03858052497469
N           -0.31985350629398        4.63747415554052       10.52112074376725
C           -4.12762837772165        9.57548641254351        6.91971277728001
C           -2.00619150386241        7.39210771555281        2.96860522646415
C           -0.41400980463350       14.43784421451506        0.88393690467362
C            2.90005787817139       10.66595845825971        0.88175257240233
C            3.94860897119027        9.47927197845279       16.58021147423747
C            0.57419826885440       13.12825125333695       17.27163094421655
C            4.65819903321103       10.98792741257019       10.12674170120087
C            0.88011287050338       14.15609570405262        9.57282884973986
F           -0.19286251944216       14.66516443254600       10.17518767793901
F            1.74504236680375       15.16530590243556        9.38821047131083
F            0.48875079323365       13.77922711895793        8.33713101746545
F            5.65075953664441       11.81077987802539       10.49860746765331
F            4.72713511292283       10.90711647181548        8.78373053496725
F            4.96504193495052        9.77600031633756       10.59802965443066
F            4.66666842626764       10.08719904588804       17.52984831828851
F            4.79773356965394        9.17573750141266       15.58632177387246
F            3.54262047417853        8.30657608297555       17.09882523943155
F           -1.69145125148045       14.58972700915647        1.25392393876241
F            0.20962342605704       15.59144203438143        1.17943365519149
F           -0.40644620288411       14.33447968384944       -0.45103202710285
F            3.13916026434571       11.02107754202982       -0.38067342529920
F            2.59209685305852        9.35775996363092        0.87105880663092
F            4.06900459684830       10.76384955674986        1.54283371950921
F           -4.29233707055430       10.76191994570255        7.50227611039103
F           -3.83328735327581        8.69626114926106        7.89985857885012
F           -5.32453030931186        9.20312375101005        6.44171392972469
F           -2.62090112902645        7.74635149896305        1.82620009357901
F           -0.75338497316733        7.05365678404470        2.63243537927842
F           -2.60774778944004        6.27587156856797        3.39560767233724
F            0.86612162485042       14.33765351929822       16.75981554355444
F            1.01456183220987       13.13332008333959       18.53459962800686
F           -0.76266259162858       13.05611757968348       17.32785321713653
C            3.71782806734480        7.39953434885726        8.73368197542961
C            4.76904473904396        7.72930406631274        7.87430046186967
C            3.79008137268360        6.19170660196635        9.43554483415053
C            5.84743198632487        6.88108395678469        7.71669387559466
H            4.76692036467901        8.67311022827352        7.35181953616292
C            4.86862946126402        5.34506525118375        9.26996006968591
H            2.99231570721015        5.90843074745242       10.10408141985232
C            5.90054652154230        5.68224353902232        8.40856139520023
H            6.65424892225380        7.15922278913643        7.05508252305348
H            4.90864902288582        4.41658642530420        9.82122987740629
H            6.74394186841480        5.01988303613531        8.28278591575140
